         561
  Built with Packmol                                             
  C            6.097905       10.072393       19.395387
  H            5.413735        9.385716       19.848477
  H            6.194696       10.965852       20.036789
  H            5.711898       10.369983       18.404694
  O            7.443590        9.411229       19.238700
  C            8.320614       10.341002       18.639808
  H            8.417405       11.234461       19.281211
  H            7.934607       10.638592       17.649115
  C            8.724218       10.839129       20.004187
  H            7.739865       11.329442       20.102563
  H            9.436158       11.534436       19.525932
  O            9.234964       10.446913       21.367221
  C            9.356849       11.619921       22.142791
  H            8.372503       12.110246       22.241171
  H           10.068783       12.315236       21.664545
  C            9.903468       12.879798       21.521119
  H            9.571624       13.446715       22.408537
  H            9.088826       12.850846       20.776441
  O           11.117648       13.541252       20.920453
  C           10.760268       14.854598       20.546676
  H           10.428420       15.421528       21.434090
  H            9.945621       14.825659       19.801994
  C            9.414583       15.515762       20.703363
  H            9.436120       15.275769       21.780843
  H            8.953321       14.679900       20.148748
  O            8.617448       16.775485       20.479249
  C            7.305281       16.552107       20.948962
  H            7.326805       16.312110       22.026448
  H            6.844006       15.716241       20.394353
  C            6.758662       15.292230       21.570634
  H            7.573304       15.321182       22.315312
  H            7.090506       14.725313       20.683217
  O            5.544482       14.630776       22.171300
  C            5.901862       13.317429       22.545078
  H            6.716509       13.346369       23.289759
  H            6.233710       12.750499       21.657663
  C            5.355243       12.057553       23.166750
  H            6.169885       12.086505       23.911428
  H            5.687087       11.490636       22.279332
  O            4.141063       11.396099       23.767416
  C            4.498443       10.082752       24.141193
  H            5.313090       10.111691       24.885874
  H            4.830291        9.515822       23.253779
  C            4.094839        9.584625       22.776814
  H            4.813467       10.288186       22.321167
  H            3.117175       10.083193       22.897798
  O            3.941200        8.372428       21.893905
  C            3.462207        8.803833       20.638210
  H            4.180824        9.507395       20.182555
  H            2.484544        9.302406       20.759181
  H            3.460402        7.765212       20.263658
  C           15.600605        4.521680       14.965963
  H           15.440932        3.463776       14.981702
  H           14.695309        5.031701       15.339262
  H           15.803958        4.843396       13.929536
  O           16.776300        4.865536       15.844633
  C           16.959766        6.264410       15.802060
  H           16.054470        6.774431       16.175360
  H           17.163119        6.586126       14.765633
  C           16.032971        6.421827       16.980546
  H           15.178232        6.180600       16.324599
  H           16.215495        7.510590       16.962679
  O           15.732165        5.980152       18.390154
  C           14.580260        6.668571       18.827769
  H           13.725514        6.427354       18.171829
  H           14.762771        7.757333       18.809904
  C           14.403204        8.127865       18.493601
  H           13.353474        8.064606       18.829889
  H           14.462123        7.876301       17.420163
  O           14.925207        9.524251       18.717596
  C           14.125676       10.415244       17.969807
  H           13.075936       10.351992       18.306087
  H           14.184586       10.163687       16.896360
  C           12.949981       10.071387       17.091137
  H           12.480225        9.551662       17.944506
  H           13.588874        9.363356       16.534780
  O           11.881749       10.617172       16.178145
  C           11.107131        9.532407       15.713861
  H           10.637368        9.012669       16.567227
  H           11.746018        8.824364       15.157500
  C           11.284187        8.073113       16.048029
  H           11.225268        8.324677       17.121467
  H           12.333918        8.136372       15.711741
  O           10.762184        6.676727       15.824034
  C           11.561715        5.785734       16.571824
  H           11.502805        6.037290       17.645270
  H           12.611455        5.848985       16.235543
  C           11.738772        4.326440       16.905992
  H           11.679853        4.578004       17.979430
  H           12.788502        4.389699       16.569704
  O           11.216769        2.930054       16.681997
  C           12.016300        2.039061       17.429786
  H           11.957390        2.290617       18.503232
  H           13.066039        2.102312       17.093506
  C           12.943095        1.881644       16.251301
  H           13.110262        2.973015       16.252962
  H           12.072999        1.643025       15.614883
  O           14.167914        1.180841       15.720971
  C           14.395805        1.634900       14.404078
  H           14.562970        2.726268       14.405725
  H           13.525714        1.396290       13.767649
  H           15.283752        0.984658       14.315980
  C           21.707413       16.647094       19.023900
  H           22.142841       15.977123       19.735550
  H           21.091629       16.070807       18.311342
  H           22.511670       17.169844       18.477148
  O           20.844990       17.652927       19.742985
  C           20.286971       18.519429       18.778564
  H           19.671186       17.943143       18.066006
  H           21.091228       19.042179       18.231812
  C           19.099862       17.600670       18.639956
  H           19.738444       16.876957       18.103776
  H           18.654413       18.305857       17.916544
  O           18.006239       16.867153       19.373779
  C           17.239122       16.160556       18.422693
  H           17.877694       15.436841       17.886504
  H           16.793670       16.865730       17.699275
  C           16.893352       16.806109       17.105020
  H           16.550674       15.826156       16.729135
  H           17.970715       16.925193       16.894941
  O           16.118951       17.908700       16.428893
  C           16.351373       17.817984       15.039627
  H           16.008698       16.838029       14.663727
  H           17.428739       17.937066       14.829534
  C           17.213796       16.812151       14.320542
  H           16.642759       15.998143       14.800472
  H           18.062800       17.097179       14.966278
  O           17.727246       16.350925       12.980320
  C           18.565606       15.235552       13.193408
  H           17.994577       14.421533       13.673342
  H           19.414618       15.520569       13.839148
  C           18.911376       14.589999       14.511081
  H           17.834013       14.470915       14.721160
  H           19.254054       15.569952       14.886966
  O           19.685777       13.487408       15.187208
  C           19.453355       13.578124       16.576474
  H           18.375989       13.459042       16.786567
  H           19.796030       14.558078       16.952373
  C           19.799125       12.932571       17.894147
  H           18.721763       12.813487       18.104226
  H           20.141804       13.912523       18.270033
  O           20.573527       11.829980       18.570275
  C           20.341105       11.920696       19.959541
  H           19.263739       11.801614       20.169634
  H           20.683780       12.900650       20.335440
  C           21.528213       12.839455       20.098149
  H           21.063092       13.529417       19.372441
  H           22.147124       12.100518       19.559673
  O           22.388723       13.618334       21.060140
  C           23.388953       14.279569       20.315412
  H           22.923846       14.969531       19.589700
  H           24.007869       13.540642       19.776928
  H           23.808402       14.718616       21.237543
  C           19.424144       20.527180       12.311483
  H           20.204346       20.182835       11.665251
  H           18.533490       20.773323       11.707179
  H           19.767210       21.429795       12.846858
  O           19.081167       19.446657       13.305160
  C           18.051702       19.931348       14.140382
  H           17.161047       20.177491       13.536078
  H           18.394768       20.833963       14.675757
  C           17.020352       19.382558       13.187648
  H           17.271554       20.185688       12.472865
  H           16.224154       19.730971       13.868616
  O           16.549166       18.163216       12.436819
  C           15.403756       18.522355       11.694279
  H           15.654944       19.325487       10.979494
  H           14.607554       18.870771       12.375234
  C           14.359132       19.418935       12.308657
  H           13.895875       19.539921       11.313779
  H           15.129596       20.196394       12.453458
  O           13.304545       19.543199       13.378685
  C           12.721729       20.824286       13.271667
  H           12.258469       20.945285       12.276787
  H           13.492189       21.601758       13.416466
  C           13.064707       21.904809       12.277990
  H           12.886484       21.188707       11.456735
  H           14.120205       21.845179       12.596414
  O           12.753709       23.303359       11.809065
  C           13.602309       23.598481       10.720446
  H           13.424096       22.882380        9.899180
  H           14.657816       23.538853       11.038859
  C           14.646933       22.701900       10.106068
  H           13.876469       21.924441        9.961267
  H           15.110189       22.580914       11.100946
  O           15.701520       22.577636        9.036040
  C           16.284336       21.296549        9.143058
  H           15.513876       20.519078        8.998259
  H           16.747596       21.175550       10.137938
  C           17.328960       20.399969        8.528680
  H           16.558495       19.622510        8.383878
  H           17.792216       20.278983        9.523557
  O           18.383546       20.275705        7.458652
  C           18.966362       18.994618        7.565669
  H           18.195902       18.217147        7.420870
  H           19.429623       18.873619        8.560549
  C           19.997712       19.543408        8.518404
  H           19.184425       19.882727        9.183585
  H           20.231824       20.337444        7.787834
  O           21.224263       19.227444        9.335899
  C           21.614308       20.403612       10.011773
  H           20.801030       20.742941       10.676954
  H           21.848420       21.197658        9.281214
  H           22.464139       19.874106       10.477002
  C            6.730097        9.838022        5.751499
  H            5.967703       10.582308        5.849981
  H            7.507380       10.010174        6.516503
  H            7.180420        9.909532        4.745949
  O            6.124745        8.470474        5.941021
  C            7.153870        7.514016        5.805344
  H            7.931153        7.686168        6.570347
  H            7.604193        7.585526        4.799794
  C            7.427198        7.598149        7.285469
  H            7.879264        8.593802        7.132672
  H            8.202673        6.820203        7.173764
  O            6.824294        7.520170        8.664955
  C            7.855628        7.730024        9.605499
  H            8.307705        8.725673        9.452711
  H            8.631109        6.952088        9.493803
  C            9.208919        7.101302        9.391331
  H            9.617021        7.734785       10.198286
  H            9.290061        7.634144        8.427733
  O            9.978957        5.807129        9.322694
  C           11.330143        6.115808        9.055631
  H           11.738258        6.749296        9.862584
  H           11.411298        6.648655        8.092030
  C           11.935496        7.483356        8.866109
  H           11.522032        7.788057        9.843468
  H           11.195072        7.687415        8.072915
  O           13.202337        8.251855        8.588484
  C           12.884359        9.626926        8.569042
  H           12.470890        9.931641        9.546402
  H           12.143930        9.830999        7.775848
  C           11.531068       10.255648        8.783211
  H           11.449926        9.722807        9.746809
  H           11.122966        9.622165        7.976256
  O           10.761029       11.549822        8.851847
  C            9.409843       11.241143        9.118911
  H            9.328689       10.708296       10.082511
  H            9.001728       10.607655        8.311958
  C            8.056552       11.869865        9.333079
  H            7.975411       11.337023       10.296677
  H            7.648450       11.236381        8.526124
  O            7.286514       13.164038        9.401716
  C            5.935328       12.855359        9.668779
  H            5.854173       12.322512       10.632380
  H            5.527213       12.221871        8.861827
  C            5.662000       12.771226        8.188654
  H            6.442004       11.994674        8.101476
  H            6.118595       13.768272        8.060384
  O            4.609162       12.554753        7.131664
  C            5.233570       12.639351        5.868624
  H            6.013576       11.862808        5.781434
  H            5.690172       13.636393        5.740342
  H            4.270738       12.452036        5.361777
  C           22.682263        3.023601       13.390627
  H           22.919439        3.682495       12.581609
  H           22.607316        3.607153       14.324909
  H           23.481459        2.268439       13.490878
  O           21.368327        2.338963       13.112420
  C           21.085161        1.479286       14.195514
  H           21.010214        2.062839       15.129797
  H           21.884357        0.724124       14.295766
  C           20.354406        2.598408       14.892737
  H           21.323568        3.084455       15.101344
  H           20.104717        1.905889       15.715606
  O           19.277641        3.645789       14.765750
  C           19.208980        4.352582       15.985603
  H           20.178138        4.838632       16.194223
  H           18.959295        3.660075       16.808478
  C           19.319095        3.610023       17.292905
  H           19.436407        4.574875       17.816665
  H           20.310550        3.236160       16.982634
  O           18.663481        2.610011       18.210892
  C           19.491695        2.446095       19.342043
  H           19.609017        3.410946       19.865813
  H           20.483160        2.072232       19.031782
  C           20.805631        3.130733       19.620249
  H           20.311137        4.108239       19.482468
  H           21.185280        2.769524       18.648437
  O           21.949625        3.272501       20.591709
  C           22.865168        4.203874       20.056326
  H           22.370682        5.181388       19.918538
  H           23.244825        3.842674       19.084506
  C           22.755053        4.946432       18.749024
  H           21.763598        5.320295       19.059296
  H           22.637741        3.981581       18.225264
  O           23.410667        5.946444       17.831037
  C           22.582453        6.110360       16.699886
  H           21.590988        6.484224       17.010147
  H           22.465131        5.145509       16.176116
  C           22.472338        6.852919       15.392585
  H           21.480883        7.226782       15.702856
  H           22.355026        5.888068       14.868825
  O           23.127952        7.852931       14.474598
  C           22.299737        8.016847       13.343447
  H           21.308273        8.390711       13.653708
  H           22.182416        7.051996       12.819676
  C           23.030492        6.897725       12.646224
  H           22.768695        6.223751       13.480646
  H           23.987546        7.402317       12.866384
  O           23.156644        6.102888       11.371518
  C           24.175919        5.143551       11.553358
  H           23.914135        4.469574       12.387777
  H           25.132978        5.648131       11.773521
  H           24.025112        4.764735       10.527306
  C           17.709161       20.894786        3.698065
  H           16.903347       21.508370        3.352983
  H           17.318341       19.897090        3.964332
  H           18.166003       21.361295        4.588402
  O           18.741823       20.761595        2.607916
  C           19.788378       19.948617        3.093825
  H           19.397559       18.950921        3.360091
  H           20.245221       20.415126        3.984162
  C           19.079760       18.724590        2.572122
  H           18.336236       18.825182        3.382114
  H           19.923021       18.103100        2.920980
  O           18.437400       18.080772        1.369863
  C           17.969033       16.805980        1.754377
  H           17.225510       16.906559        2.564371
  H           18.812282       16.184483        2.103238
  C           18.808096       15.936168        2.655463
  H           17.940889       15.267561        2.796681
  H           18.788551       16.731766        3.420752
  O           20.085196       15.144611        2.777968
  C           20.123290       14.572776        4.067876
  H           19.256082       13.904164        4.209108
  H           20.103744       15.368369        4.833178
  C           19.090629       14.705966        5.158026
  H           18.320748       14.340360        4.456141
  H           19.168410       15.804565        5.080212
  O           18.717224       14.321583        6.567059
  C           17.471977       14.914736        6.866787
  H           16.702084       14.549137        6.164904
  H           17.549746       16.013342        6.788974
  C           16.632914       15.784548        5.965701
  H           16.652458       14.988950        5.200412
  H           17.500120       16.453155        5.824483
  O           15.355813       16.576105        5.843196
  C           15.317719       17.147941        4.553288
  H           15.337265       16.352348        3.787986
  H           16.184927       17.816552        4.412056
  C           14.478656       18.017753        3.652202
  H           14.498201       17.222155        2.886913
  H           15.345863       18.686360        3.510983
  O           13.201556       18.809309        3.529696
  C           13.163462       19.381145        2.239788
  H           13.183008       18.585552        1.474486
  H           14.030670       20.049757        2.098557
  C           13.872080       20.605173        2.761491
  H           14.703598       19.963400        3.101704
  H           13.116813       20.685483        3.562838
  O           14.396196       21.976262        2.418021
  C           14.982807       22.523782        3.579237
  H           15.814323       21.882019        3.919460
  H           14.227551       22.604094        4.380593
  H           15.243784       23.446630        3.032183
  C           18.556604        7.444481        6.086218
  H           19.572817        7.752813        5.955278
  H           17.894375        8.126640        5.524838
  H           18.300430        7.482552        7.159513
  O           18.388513        6.036901        5.573364
  C           17.040772        5.661382        5.760183
  H           16.378544        6.343541        5.198803
  H           16.784599        5.699453        6.833478
  C           16.701324        6.199819        4.393649
  H           16.815345        7.226446        4.783611
  H           15.658516        5.865648        4.534793
  O           17.049796        6.171702        2.927247
  C           16.169253        7.043794        2.251666
  H           16.283263        8.070425        2.641622
  H           15.126444        6.709636        2.392804
  C           14.710117        7.080686        2.628652
  H           14.590218        7.997296        2.024934
  H           14.996273        7.353208        3.659609
  O           13.413688        6.311620        2.647663
  C           12.422987        7.138513        3.219563
  H           12.303079        8.055132        2.615851
  H           12.709134        7.411045        4.250525
  C           12.591078        8.546093        3.732417
  H           13.003318        8.840883        2.751509
  H           13.409373        8.196795        4.386183
  O           11.900717        9.725575        4.368639
  C           12.854554       10.752413        4.536295
  H           13.266805       11.047212        3.555387
  H           13.672860       10.403124        5.190062
  C           14.313689       10.715521        4.159308
  H           14.027534       10.442998        3.128351
  H           14.433589        9.798911        4.763026
  O           15.610119       11.484587        4.140298
  C           16.600820       10.657694        3.568397
  H           16.314673       10.385162        2.537435
  H           16.720728        9.741074        4.172110
  C           18.059955       10.620802        3.191411
  H           17.773800       10.348279        2.160454
  H           18.179855        9.704192        3.795129
  O           19.356385       11.389868        3.172400
  C           20.347086       10.562975        2.600500
  H           20.060939       10.290443        1.569538
  H           20.466994        9.646355        3.204212
  C           20.686535       10.024539        3.967035
  H           19.638102        9.699290        4.085535
  H           20.794932       11.060088        4.334353
  O           21.593784        9.110086        4.750127
  C           21.218606        9.180564        6.109018
  H           20.170177        8.855321        6.227531
  H           21.326995       10.216109        6.476348
  H           22.008668        8.459081        6.381581
  C           16.101383        8.180674       10.009358
  H           15.646640        8.508134        9.097830
  H           16.693133        9.008229       10.438334
  H           16.765140        7.324199        9.797436
  O           15.029643        7.763869       10.984143
  C           15.660980        7.338509       12.172756
  H           16.252730        8.166064       12.601732
  H           16.324738        6.482034       11.960834
  C           15.600784        8.746303       12.708526
  H           16.394752        9.037084       11.998529
  H           16.058654        8.394374       13.649558
  O           14.710754        9.930419       12.988298
  C           15.506429       10.952958       13.548322
  H           16.300404       11.243746       12.838336
  H           15.964305       10.601041       14.489351
  C           16.564875       10.610983       14.565820
  H           16.973040       11.631981       14.465875
  H           17.045048        9.947952       13.824977
  O           16.827353       10.092792       15.956912
  C           18.223942       10.074952       16.160703
  H           18.632122       11.095951       16.060758
  H           18.704130        9.411921       15.419860
  C           19.295682       10.491757       15.185918
  H           18.803477       11.474844       15.084429
  H           18.875485        9.790814       14.443530
  O           20.778933       10.640590       14.961492
  C           20.975586       11.145080       13.657986
  H           20.483382       12.128172       13.556483
  H           20.555390       10.444142       12.915585
  C           19.917140       11.487055       12.640489
  H           19.436967       12.150086       13.381332
  H           19.508975       10.466057       12.740433
  O           19.654662       12.005245       11.249396
  C           18.258073       12.023086       11.045606
  H           17.777885       12.686116       11.786448
  H           17.849893       11.002087       11.145550
  C           17.199627       12.365061       10.028108
  H           16.719454       13.028092       10.768951
  H           16.791462       11.344062       10.128053
  O           16.937149       12.883251        8.637015
  C           15.540560       12.901091        8.433225
  H           15.060372       13.564122        9.174067
  H           15.132380       11.880093        8.533169
  C           15.600756       11.493298        7.897455
  H           16.057628       11.164697        8.847364
  H           16.393726       11.807407        7.196336
  O           14.809816       10.360003        7.295279
  C           15.695111        9.286643        7.057659
  H           16.151990        8.958035        8.007558
  H           16.488089        9.600741        6.356543
  H           14.870531        8.674879        6.651656
  C            7.686991       13.614306       16.261875
  H            7.175409       13.018276       15.535283
  H            8.770411       13.595518       16.050018
  H            7.501017       13.199978       17.268245
  O            7.180700       15.032661       16.194838
  C            7.873730       15.790643       17.163080
  H            8.957150       15.771855       16.951223
  H            7.687756       15.376315       18.169451
  C            8.934902       16.121302       16.144682
  H            9.304558       15.083054       16.211249
  H            9.447071       16.743957       16.899017
  O            9.203970       16.669028       14.766221
  C           10.598242       16.639595       14.548387
  H           10.967911       15.601352       14.614955
  H           11.110421       17.262243       15.302716
  C           11.541714       17.028811       15.657858
  H           12.382563       16.623930       15.067883
  H           11.113169       16.228390       16.286111
  O           12.030707       18.154712       16.532951
  C           13.020566       17.638890       17.396906
  H           13.861424       17.234003       16.806939
  H           12.592031       16.838463       18.025166
  C           13.526857       16.220535       17.463942
  H           13.758628       16.265566       16.385388
  H           12.489235       15.870026       17.603616
  O           14.479409       15.274191       18.149239
  C           14.320446       13.997325       17.569020
  H           14.552214       14.042344       16.490459
  H           13.282820       13.646804       17.708686
  C           13.376973       13.608109       16.459548
  H           13.805518       14.408529       15.831296
  H           12.536124       14.012989       17.049523
  O           12.887981       12.482208       15.584455
  C           11.898121       12.998030       14.720501
  H           12.326657       13.798457       14.092240
  H           11.057263       13.402917       15.310468
  C           10.954649       12.608813       13.611029
  H           11.383194       13.409234       12.982777
  H           10.113800       13.013694       14.201004
  O           10.465657       11.482913       12.735936
  C            9.475797       11.998734       11.871982
  H            9.904333       12.799161       11.243721
  H            8.634939       12.403621       12.461949
  C            8.414626       11.668075       12.890380
  H            8.944379       12.296210       13.627841
  H            8.801866       10.635307       12.940072
  O            6.936868       11.671495       13.188335
  C            6.751286       11.149782       14.486675
  H            7.281035       11.777906       15.224143
  H            7.138525       10.117015       14.536381
  H            5.658226       11.279341       14.400305
  C            1.094482        4.041549        1.055165
  H            1.332023        3.038665        0.767584
  H            1.575139        4.265718        2.023541
  H           -0.000513        4.141473        1.155340
  O            1.597968        4.998202        0.004512
  C            1.269567        6.308793        0.412954
  H            1.750224        6.532962        1.381330
  H            0.174572        6.408717        0.513129
  C            2.586762        6.412658        1.138742
  H            2.202798        5.720682        1.908661
  H            2.336417        7.450962        1.418549
  O            4.082446        6.264284        1.022682
  C            4.651405        6.575462        2.276383
  H            4.267447        5.883494        3.046312
  H            4.401066        7.613760        2.556201
  C            4.118434        7.735886        3.077579
  H            4.697893        7.384093        3.949069
  H            3.122241        7.259847        3.080868
  O            3.965718        9.234318        3.140300
  C            3.283025        9.554798        4.333419
  H            3.862477        9.203007        5.204922
  H            2.286825        9.078761        4.336720
  C            2.779540        8.598145        5.384073
  H            3.796782        8.177775        5.470867
  H            2.221129        8.053530        4.602665
  O            2.062439        8.469816        6.703865
  C            1.990348        7.098632        7.030926
  H            3.007590        6.678249        7.117721
  H            1.431938        6.554003        6.249520
  C            2.523319        5.938209        6.229729
  H            3.519513        6.414247        6.226440
  H            1.943860        6.290002        5.358239
  O            2.676036        4.439777        6.167008
  C            3.358728        4.119296        4.973889
  H            4.354928        4.595333        4.970588
  H            2.779276        4.471088        4.102387
  C            3.891699        2.958873        4.172692
  H            4.887893        3.434911        4.169403
  H            3.312240        3.310666        3.301202
  O            4.044415        1.460441        4.109971
  C            4.727108        1.139961        2.916852
  H            5.723308        1.615998        2.913551
  H            4.147656        1.491752        2.045350
  C            3.409914        1.036095        2.191064
  H            3.181395        2.076120        2.482897
  H            3.047777        0.345840        2.973009
  O            2.737326        0.716746        0.880263
  C            1.345270        0.873291        1.053423
  H            1.116740        1.913309        1.345259
  H            0.983121        0.183043        1.835369
  H            1.165888        0.589235        0.001682
